   26
 CASSCF000/6-31G  ENERGY=-536.94744967
 C          0.9978202052       -0.2821137535        0.9833253431
 C          1.2260664070        0.2324128693       -0.3861746779
 C          0.2874586986        0.0878358489       -1.4077851598
 C          0.5602221358        0.5429825433       -2.6883401728
 C          1.7761300939        1.1485399093       -2.9741452678
 C          2.7231242595        1.2875095796       -1.9706401403
 C          2.4519000314        0.8260700418       -0.6915974282
 C         -0.1040471935       -0.2530434636        1.7373872041
 C         -1.4101558538        0.3978848551        1.4869406646
 C         -1.5184228139        1.6742969035        0.9350073426
 C         -2.7595683103        2.2662145900        0.7601636234
 C         -3.9160194040        1.5964767933        1.1355142281
 C         -3.8219035399        0.3319112772        1.6968935722
 C         -2.5795556258       -0.2566803870        1.8773645262
 H          1.8584773866       -0.7620789607        1.4172939834
 H         -0.6513968650       -0.3857713132       -1.2011219055
 H         -0.1731617182        0.4198828183       -3.4621937262
 H          1.9845114032        1.4997329613       -3.9664899942
 H          3.6693298853        1.7476895412       -2.1823076459
 H          3.1937315894        0.9293528235        0.0785551972
 H         -0.0469388963       -0.7653588378        2.6827423158
 H         -0.6320566410        2.2045760826        0.6493139533
 H         -2.8226568006        3.2504252856        0.3368395022
 H         -4.8754429571        2.0573497792        0.9990955982
 H         -4.7091441576       -0.1919399961        1.9973211582
 H         -2.5139313191       -1.2329377909        2.3209079060

