 26
 CASSCF000/6-31G  ENERGY=-536.77156551
 C          1.1231981806       -0.2445181944        1.1278255876
 C          1.2326244584        0.2137617369       -0.1952174332
 C          0.0911152426        0.2454855190       -1.0795783073
 C          0.2046424576        0.8437691914       -2.3451477948
 C          1.3923920402        1.3825175913       -2.7660795615
 C          2.5431816800        1.2897704913       -1.9397734026
 C          2.4698629569        0.7109603717       -0.7085818946
 C         -0.0930833273       -0.4381511015        1.7978119204
 C         -1.2750282503        0.2632893689        1.5089876820
 C         -1.2648853072        1.4551174665        0.6931867092
 C         -2.4784162808        2.0463535949        0.3055097391
 C         -3.6785776768        1.5208622864        0.7075711358
 C         -3.7034282112        0.3958596455        1.5732747293
 C         -2.5447893928       -0.1989568859        1.9732599499
 H          2.0348386901       -0.4919904997        1.6437599994
 H         -0.7439003135       -0.3885496423       -0.8743886945
 H         -0.6507189448        0.8511172085       -2.9933263132
 H          1.4696516886        1.8411311109       -3.7326861133
 H          3.4771516722        1.6824515600       -2.2933846792
 H          3.3405382041        0.6569157283       -0.0821987736
 H         -0.1219023795       -1.1455081786        2.6085727900
 H         -0.3580359707        2.0114892659        0.5959452682
 H         -2.4529549961        2.9365134706       -0.2934839267
 H         -4.6010702812        1.9762660687        0.4038450822
 H         -4.6473969022        0.0138622086        1.9117155010
 H         -2.5706390367       -1.0585993830        2.6164508006
