   26
 CASSCF000/6-31G  ENERGY=-536.94744967
 C         -1.8671174170       -0.0485861810        0.6659940610
 C         -0.7330066335       -0.0636034685        1.6177942836
 C          0.3686323928        0.7815896755        1.4851573786
 C          1.3876242928        0.7679474232        2.4247665002
 C          1.3250188514       -0.0876155979        3.5160488439
 C          0.2294266824       -0.9243610482        3.6666359833
 C         -0.7924739724       -0.9053000821        2.7297315839
 C         -1.8671200658        0.0495773059       -0.6658992513
 C         -0.7330480819        0.0639972742       -1.6177525120
 C          0.3682065672       -0.7816979246       -1.4851164819
 C          1.3871563127       -0.7685896794       -2.4247786524
 C          1.3248919898        0.0869295835       -3.5161148756
 C          0.2296797143        0.9241723636       -3.6667019307
 C         -0.7921813156        0.9056466926       -2.7297442512
 H         -2.8327099884       -0.1141894453        1.1379571273
 H          0.4238876143        1.4525439020        0.6513551052
 H          2.2257907098        1.4279257706        2.3074983063
 H          2.1153655876       -0.0958884261        4.2418536640
 H          0.1673480775       -1.5846763498        4.5104381544
 H         -1.6421428298       -1.5501464731        2.8575876380
 H         -2.8326987813        0.1156935601       -1.1378189393
 H          0.4231950995       -1.4526241654       -0.6512746511
 H          2.2250224285       -1.4289490558       -2.3075095961
 H          2.1152053823        0.0947876102       -4.2419606021
 H          0.1678635558        1.5844599278       -4.5105450629
 H         -1.6415586409        1.5508769077       -2.8576012042

