   26
 CASSCF000/6-31G  ENERGY=-536.95511247
 C         -1.3981815028        1.0272485822        0.4454805749
 C         -2.6677488244        1.7026793586        0.1302084591
 C         -2.7719699715        2.7265020316       -0.8144718838
 C         -3.9929707255        3.3217948383       -1.0853198602
 C         -5.1373175751        2.9149824534       -0.4128739147
 C         -5.0477811556        1.9096035813        0.5376063328
 C         -3.8256065421        1.3141451820        0.8070862422
 C         -0.2923451898        1.0274444676       -0.3058327350
 C          0.9805793566        0.3598055939        0.0119835925
 C          1.3141638176       -0.0738828025        1.2974518317
 C          2.5203397726       -0.7090316505        1.5424365159
 C          3.4262605200       -0.9181630795        0.5114699373
 C          3.1155391936       -0.4818785521       -0.7672485120
 C          1.9077362827        0.1526557545       -1.0112998144
 H         -1.4074492557        0.4653291963        1.3620943669
 H         -1.8966766998        3.0735998280       -1.3276415615
 H         -4.0498364253        4.1080475431       -1.8136679877
 H         -6.0813797183        3.3799055822       -0.6220987324
 H         -5.9245772030        1.5898970717        1.0675178300
 H         -3.7673264245        0.5348152814        1.5439120416
 H         -0.3064399511        1.5316324066       -1.2554222604
 H          0.6400880169        0.0984351160        2.1133865632
 H          2.7569544239       -1.0324730759        2.5380777903
 H          4.3611110456       -1.4080631878        0.7044042085
 H          3.8093382223       -0.6342875322       -1.5716938991
 H          1.6757027424        0.4848065018       -2.0060220257

